CRYSTAL
PRIMVEC
  4.587966   0.000000   0.000000
  0.000000   4.587966   0.000000
  0.000000   0.000000   2.958101
PRIMCOORD
6 1
22   2.293983   2.293983   1.479050
22   0.000000   0.000000   0.000000
 8   3.192307   3.192307   0.000000
 8   3.689643   0.898324   1.479050
 8   1.395659   1.395659   0.000000
 8   0.898324   3.689643   1.479050
